16
 energy: -35.095876233911 gnorm: 0.000303649793 xtb: 6.5.0 (746241f)
C           -0.55074532088078        0.88217365482416       -0.00716313287570
C            0.02062535245480       -0.34952947736998        0.04362971468314
F            3.00019805887275        3.80251475952288       -0.02702155746926
H            6.80574347414682        1.33207435640475        0.20033716171761
S            4.60599411700134        0.30588966914320        0.16567466228281
C            5.76327009905524        1.57395748692492        0.15512635159385
S            0.60654303522477        2.15033204737541       -0.01593607415633
C            5.19238304219217        2.80504341630963        0.08654854189924
C            1.42389510600688       -0.26286761403031        0.07622366132568
H           -1.59351750065758        1.12473876814540       -0.04049545463177
H            5.72706251073849        3.73613607560588        0.06738094765980
C            1.92358159267784        1.01843627509431        0.05075661206710
C            3.78945148755695        2.71803719415687        0.04274693933773
F            2.21351458514221       -1.34808341130552        0.12823134757295
C            3.28957912596633        1.43696357087053        0.07658982608466
H           -0.51367876549825       -1.28091677167211        0.05767045290849
