3
 energy: -5.070544427123 gnorm: 0.000183139469 xtb: 6.5.0 (746241f)
O           -2.21931692996973        1.17841865596124       -0.01200116982549
H           -1.40641984354101        1.43314919342122        0.42866583743891
H           -2.65637322648927        0.53426215061754        0.54828533238657
