3
 energy: -5.070544446867 gnorm: 0.000026009867 xtb: 6.5.0 (746241f)
O           -2.21933360430529        1.17843592034848       -0.01204555765152
H           -1.40633041631673        1.43319887413994        0.42868027409283
H           -2.65644597937798        0.53419520551158        0.54831528355869
