12
 energy: -15.879640655550 gnorm: 0.000058140871 xtb: 6.5.0 (746241f)
C            1.37279302331594       -0.19191636817729        0.00541996521662
C            0.87476744854799        1.09997967139642        0.01462361271685
C           -0.49307533466062        1.31468852097622        0.00967498625172
C           -1.36289150411927        0.23750214160939       -0.00444029564517
C           -0.86486469227616       -1.05439854990285       -0.01363816363165
C            0.50297494900609       -1.26910480071263       -0.00872497324299
H            2.44016582231328       -0.35946616270761        0.00926105960351
H            1.55350957697586        1.94055182284249        0.02564283530792
H           -0.88170160061330        2.32280158156416        0.01685409936229
H           -2.43026593048584        0.40504329067701       -0.00826906253448
H           -1.54361569582208       -1.89496352735084       -0.02462757375909
H            0.89160393781812       -2.27721762021448       -0.01587648964551
