30
 energy: -52.312876099496 gnorm: 0.000211224576 xtb: 6.5.0 (746241f)
C            4.42748348136763       12.44128187525048       -1.09970031729131
C            4.85529584487559       12.64416349468409        0.17411707337686
S            4.66419979622176       11.24667114975889        1.15587575236773
C            3.98754296648170       10.35817737781407       -0.18176400823932
C            3.56449210734826        9.00715361553687       -0.02156740806904
C            3.60253750984413        8.23087475461424        1.11214945494645
C            3.08272041659553        6.94718671455176        0.92555182496724
C            2.63985696862661        6.71698699643742       -0.35600893461639
C            2.03762913807001        5.54251270832810       -0.88441253036306
C            1.63714246194965        5.29619092126967       -2.17690470125220
C            1.05290912734121        4.03834921479270       -2.34796209031669
C            0.99260921495986        3.30055259240812       -1.18974202495027
C            0.44457353524145        1.99928597931167       -0.99934789902966
C            0.35650799743517        1.27222381110944        0.16069894700256
C           -0.26451907371197        0.02273832159871       -0.01648573377620
C           -0.64503781593862       -0.19762664939089       -1.30233594118547
S           -0.25219149670233        1.12027030570065       -2.33293295842313
S            1.68547562556488        4.18045126328598        0.14423129863790
S            2.87681720123690        8.12432241445428       -1.35625579662979
C            3.93266896299122       11.14111973415750       -1.30696140715975
H            4.46275298045705       13.19521465360545       -1.86554571299826
H            5.27361980956037       13.53184681956645        0.60481896692045
H            3.99433098122612        8.59319926652465        2.04616576198031
H            3.02595579394435        6.20047065985637        1.69776232818174
H            1.76727455620746        6.01419459017436       -2.96728892739434
H            0.67780929677504        3.66993779762449       -3.28645242232654
H            0.72735502592285        1.63546939669168        1.10266892708013
H           -0.42345267951810       -0.68263172430067        0.77938444786536
H           -1.13587746900535       -1.05584829712702       -1.71589841451370
H            3.54591773463194       10.78316024170956       -2.24455755479158
