5
 energy: -20.052485053631 gnorm: 0.000000235030 xtb: 6.2.2 (655bc02)
Ti          0.00000000000000   -0.00000000000000   -0.00000000000000
Cl          1.21887403603965    1.21887403603965    1.21887403603965
Cl         -1.21887403603965   -1.21887403603965    1.21887403603965
Cl         -1.21887403603965    1.21887403603965   -1.21887403603965
Cl          1.21887403603965   -1.21887403603965   -1.21887403603965
