8
 energy: -15.597480302472 gnorm: 0.000446562405 xtb: 6.5.0 (746241f)
C           -0.92024323791323        0.69551654207148       -0.02723379156804
C            0.56321328888595        1.03023069392945       -0.00434470547051
H            0.81883148724180        1.77144939440272       -0.76802546851254
H            0.88000030557759        1.38060233725830        0.98299498862612
F            1.28305184308059       -0.10341745479426       -0.28253386502180
Cl          -1.85428983007669        2.16319001780840        0.33298314367737
H           -1.22189764067717        0.33697400205985       -1.01193539471650
H           -1.16106621611883       -0.05174553273595        0.72959509298590
