12
 energy: -15.879640636854 gnorm: 0.000173995117 xtb: 6.2.2 (655bc02)
H           1.33628416367040    0.11573607810385    2.14186426796737
C           0.80627399064281    0.18748611704858    1.20308805542420
C          -0.57715077747839    0.24441387300774    1.19168968331862
H          -1.12664183283873    0.21709771641927    2.12156752978944
C          -1.25638379581517    0.33640382004551   -0.01139899328105
H          -2.33587634226253    0.38087174350628   -0.02028932200082
C          -0.55219366415913    0.37146180571631   -1.20308790217342
H          -1.08219959595101    0.44327444202042   -2.14186145318151
C           0.83123324658809    0.31453352595802   -1.19168828735675
H           1.38071986762405    0.34191643355834   -2.12156707947006
C           1.51046491038930    0.22254602376298    0.01139798028498
H           2.58995982959031    0.17813842085270    0.02029552067899
