24
Properties=species:S:1:pos:R:3 gnorm:=T pbc="F F F" 0.000173995117=T 655bc02=T energy:=T 6.2.2=T xtb:=T -15.879640636854=T
H       1.30114726       2.09372354       4.19997262 
C       0.73085652       1.17604816       4.20000183 
C      -0.65305723       1.22096481       4.20000431 
H      -1.16264998       2.17368441       4.19996473 
C      -1.38391347       0.04491585       4.20000309 
H      -2.46378943       0.07996595       4.19995798 
C      -0.73085733      -1.17604809       4.20000358 
H      -1.30114641      -2.09372423       4.19997002 
C       0.65305863      -1.22096357       4.20000147 
H       1.16264406      -2.17368737       4.19997467 
C       1.38391331      -0.04491708       4.20000043 
H       2.46378935      -0.07996321       4.19998487 
H       1.30114726       2.09372354      -0.00002738 
C       0.73085652       1.17604816       0.00000183 
C      -0.65305723       1.22096481       0.00000431 
H      -1.16264998       2.17368441      -0.00003527 
C      -1.38391347       0.04491585       0.00000309 
H      -2.46378943       0.07996595      -0.00004202 
C      -0.73085733      -1.17604809       0.00000358 
H      -1.30114641      -2.09372423      -0.00002998 
C       0.65305863      -1.22096357       0.00000147 
H       1.16264406      -2.17368737      -0.00002533 
C       1.38391331      -0.04491708       0.00000043 
H       2.46378935      -0.07996321      -0.00001513 
