%nprocshared=20
%mem=16GB
#P opt freq b3lyp/6-31G(d,p) nosymm  empiricaldispersion=GD3BJ

TITLE

0  1
N          -0.23054249011012    0.81319878670036   -0.16950195614983
H           0.78156919398608    0.82688591351729   -0.19708490822577
H          -0.55340622792618    0.30453980528594   -0.98334669848914
H          -0.55339663834255    1.76899560116118   -0.25631097853955

