9
 energy: -13.818273797986 gnorm: 0.000814947573 xtb: 6.5.0 (746241f)
C            1.37607917726025       -0.70077399978824        0.00097324094769
C            1.37070039909071        0.71414517952385        0.00101264503474
C            0.11578190458077        1.22736259604743       -0.00553967166490
S           -1.08473325981530       -0.00265827627950       -0.01619727290235
C            0.12509794670752       -1.22351600728574       -0.00557762640675
H            2.27209431396561       -1.29498608771260        0.00567148277630
H            2.26217401053271        1.31514874505626        0.00574127040033
H           -0.18656723298766        2.25550070187080       -0.00700230892264
H           -0.16942725933462       -2.25392285143226       -0.00708175926243
