6
 energy: -25.830963344050 gnorm: 0.000273481891 xtb: 6.5.0 (746241f)
V           -0.15549919311859        2.21016634734309        0.10080813421938
F           -1.18405322549493        1.60053922638913       -1.03660979275505
F           -0.38108670582996        0.81316629573343        0.94994718950946
F            1.27938553299702        2.37809223530902        0.89839926207721
F            0.47584014356179        3.16499422456577       -1.08779289984505
F           -1.11878655211533        3.25824167065956        0.90564810679405
