18
 energy: -25.638035481112 gnorm: 0.000784022342 xtb: 6.5.0 (746241f)
C           -1.23680519098682       -1.39100786905630       -0.00479189873520
C           -0.00278158735244       -0.71527942735255       -0.00416267520183
C            1.23066291410658       -1.39206168265271       -0.00384774005828
C            2.43962649872596       -0.69017540947939       -0.00320336733154
C            2.44021446790027        0.68690138858014       -0.00286810721623
C            1.23185054803159        1.38981904898110       -0.00318288422702
C           -0.00217139331261        0.71409095262519       -0.00383533245773
C           -1.23561737079532        1.39087372008997       -0.00418464856009
C           -2.44458310796611        0.68898658024930       -0.00481148670239
C           -2.44517152292590       -0.68808942047462       -0.00510628294290
H           -1.24366008988377       -2.47669077768292       -0.00503796301394
H            1.23658918286616       -2.47774978961735       -0.00410769696238
H            3.37825039283039       -1.23912453967804       -0.00297062633979
H            3.37930926276961        1.23504401025748       -0.00236572806975
H            1.23870515936181        2.47550232771825       -0.00292093712883
H           -1.24154692862118        2.47656144262095       -0.00394936043972
H           -3.38320722119611        1.23793432700273       -0.00506458302286
H           -3.38426401355212       -1.23623488213122       -0.00558868158951
