12
	Energy:      16.2269668
C         -0.75142        1.17608        0.01735
C          0.64139        1.24941        0.03287
C          1.40139        0.07982        0.03227
C          0.76858       -1.16309        0.01614
C         -0.62423       -1.23642        0.00062
C         -1.38423       -0.06683        0.00122
H         -1.34355        2.08733        0.01782
H          1.13442        2.21778        0.04544
H          2.48655        0.13695        0.04436
H          1.36071       -2.07433        0.01567
H         -1.11726       -2.20479       -0.01195
H         -2.46939       -0.12396       -0.01087
