12
 energy: -15.358208434260 gnorm: 0.000327175694 xtb: 6.2.2 (655bc02)
C          -0.75406151580016    1.18015208622811    0.01732851958370
C           0.64359595124693    1.25373857361576    0.03279458409204
C           1.40623571085460    0.08008021576776    0.03242654323117
C           0.77122141295212   -1.16716060744741    0.01616148427834
C          -0.62643597007018   -1.24074711994567    0.00069544875750
C          -1.38907577705430   -0.06708874434840    0.00106348803890
H          -1.34346766549855    2.08719637880232    0.01818191374662
H           1.13435783492064    2.21765108457873    0.04516356703928
H           2.48639561471427    0.13694524240980    0.04464948386003
H           1.36062809518915   -2.07420423560020    0.01530797313363
H          -1.11719799150886   -2.20465941948541   -0.01167354325579
H          -2.46923569994567   -0.12395345457540   -0.01115946250544
