37
 energy: -65.145197433825 gnorm: 0.000218412481 xtb: 6.5.0 (746241f)
C           -0.05796668638333       10.30053018662039        3.46950288097165
C            0.86468379170497       11.00949740352399        2.76737309407729
S            1.27432419318452       10.25242220093362        1.28009078160052
C            0.17328803019822        8.94136795319786        1.60542971699939
C            0.01917199586825        7.87027853320354        0.67890581389852
C            0.65863442436122        7.68484314756809       -0.52388830233017
C            0.27173348278676        6.51690071964999       -1.18586479681452
C           -0.67270100445646        5.78701019032674       -0.50166384492597
C           -1.28179551739680        4.55989999384508       -0.87875418983340
C           -2.24600259823911        3.84335236201182       -0.20700878605863
C           -2.62532252983765        2.67073167344495       -0.86274093855885
C           -1.95808028189364        2.46537281471928       -2.04891540816445
C           -2.09321485440384        1.38373833528561       -2.96039876159870
C           -1.41341765290775        1.16893826054467       -4.13708135995856
C           -1.79371697159904       -0.00477849500229       -4.79264818668182
C           -2.77145103131954       -0.70948648414223       -4.13125274820060
C           -3.38806236785405       -1.93568873416587       -4.51283053504755
C           -4.36690341630599       -2.63827327879286       -3.85664997662821
C           -4.74530864111615       -3.81543960493622       -4.52678498488739
C           -4.05836402777181       -4.00569483817927       -5.68386602754741
S           -2.92785134226831       -2.74700583601319       -5.98494901447580
S           -3.23221583639920        0.09934583050114       -2.65907922367747
S           -0.83374462568733        3.75970634993111       -2.36053307538904
S           -1.09175873693806        6.56765254959964        0.99924143047443
C           -0.45488118037640        9.12260017438897        2.81162120489645
H           -0.44239477417729       10.60839745283135        4.42530952146978
H            1.33571222914514       11.93581538018597        3.02917328353379
H            1.38464259731593        8.38156112508852       -0.90430145300445
H            0.66281850534679        6.20427637025397       -2.13796232028061
H           -2.65681235833094        4.17074960826136        0.73171885729464
H           -3.36453742573930        1.98294016804680       -0.49171665263133
H           -0.66397515864516        1.84896620423914       -4.50185274094203
H           -1.37252020107698       -0.33888122642229       -5.72441125198023
H           -4.79195390832598       -2.30890060394933       -2.92516365428624
H           -5.49733217460298       -4.49293443947911       -4.16394714532795
H           -4.14321727640254       -4.81073233508081       -6.38617850862338
H           -1.17459666945610        8.42487088795886        3.20147730263754
