6
 energy: -25.835167715651 gnorm: 0.000096607341 xtb: 6.5.0 (746241f)
V            0.03033070169655        1.89716300333148       -0.03404925508798
F           -0.04194970866723        1.22684386197887       -1.53220612869618
F            0.10260967841488        2.56792816158492        1.46390229599804
F            1.17873544380559        0.79471547313270        0.40400591937677
F            0.48158267548546        3.33853886420736       -0.70105238247426
F           -1.56930879073526        1.55841063576468        0.19509955088362
