12
 energy: -15.879640657009 gnorm: 0.000043905286 xtb: 6.2.2 (655bc02)
C          -0.74584845075526    1.16750594581464    0.01734592071564
C           0.63674760361720    1.24029348556985    0.03275472668243
C           1.39117605312801    0.07928315780065    0.03215376879718
C           0.76300830678534   -1.15451441498323    0.01614407083919
C          -0.61958777069861   -1.22730170806705    0.00073526837100
C          -1.37401607470593   -0.06629138723291    0.00133622773573
H          -1.33455818954940    2.07348780105178    0.01781334958816
H           1.12693156325558    2.20307373838744    0.04524674949390
H           2.47006972743906    0.13608189279342    0.04417837147925
H           1.35171843701014   -2.06049591489188    0.01567666162996
H          -1.10977139776752   -2.19008218956067   -0.01175674508752
H          -2.45290980775860   -0.12309040668203   -0.01068837024493
