12
 energy: -15.879640657013 gnorm: 0.000043857673 xtb: 6.2.2 (655bc02)
C          -0.74584842561975    1.16750591465254    0.01734592072735
C           0.63674759764154    1.24029345571697    0.03275472637358
C           1.39117601804857    0.07928315488773    0.03215376840711
C           0.76300828921857   -1.15451438741795    0.01614407087232
C          -0.61958774991138   -1.22730167863749    0.00073526882860
C          -1.37401603980434   -0.06629139334704    0.00133622805412
H          -1.33455816753968    2.07348774544078    0.01781334940342
H           1.12693152194781    2.20307370367024    0.04524674880420
H           2.47006968974255    0.13608189584707    0.04417837110880
H           1.35171840384354   -2.06049587774464    0.01567666152971
H          -1.10977139312629   -2.19008214323194   -0.01175674469850
H          -2.45290974444114   -0.12309038983627   -0.01068836941070
