4
 energy: -4.426244034418 gnorm: 0.000042708348 xtb: 6.5.1 (579679a)
N           -0.23062992755643        0.81308885917325       -0.16928052116412
H            0.78153095282934        0.82693312808508       -0.19718007999016
H           -0.55334336406108        0.30462650169011       -0.98338234781526
H           -0.55333382360461        1.76897161771633       -0.25640159243475
