18
 energy: -25.474386099963 gnorm: 0.000152582252 xtb: 6.5.0 (746241f)
C           -1.23781058671818       -1.39195299398916       -0.00478163311617
C           -0.00278086835792       -0.71046608054426       -0.00415163694503
C            1.23166583249036       -1.39300770345401       -0.00384198387902
C            2.41147810134082       -0.70358458126690       -0.00323162589968
C            2.41207768809990        0.70033336385560       -0.00288759818413
C            1.23285470662682        1.39076402668811       -0.00317892686500
C           -0.00217446705096        0.70927712893662       -0.00382740165246
C           -1.23662159923881        1.39181894050397       -0.00417614938598
C           -2.41643354237711        0.70239605074183       -0.00481061092088
C           -2.41703322342599       -0.70152247219844       -0.00510094798795
H           -1.23322941828484       -2.47300144628158       -0.00503141595477
H            1.22616212230558       -2.47405177901251       -0.00408616004571
H            3.35312241577805       -1.23326117352588       -0.00298696230000
H            3.35417430984438        1.22920478356223       -0.00239284144826
H            1.22827435076231        2.47181243047472       -0.00292601564946
H           -1.23111713942535        2.47286307054235       -0.00391849829068
H           -3.35807843368583        1.23207164822487       -0.00506624109724
H           -3.35913024868325       -1.23039321325756       -0.00560335037760
