16
 energy: -35.095876440155 gnorm: 0.000237402816 xtb: 6.5.0 (746241f)
C           -0.58019241798710        0.89697116280917       -0.02306327256161
C           -0.00656028530461       -0.33443360169485        0.00586844173220
F            2.96506743878897        3.82327061325065        0.00198302416224
H            6.77568219891198        1.35636630907829        0.17651794881697
S            4.57774360407821        0.32711057709728        0.12804640822412
C            5.73273288352116        1.59716170723873        0.13767826380851
S            0.57489411569816        2.16691836742921       -0.01353552085226
C            5.15942736130583        2.82823356392826        0.09267727175113
C            1.39660890555038       -0.24591814859545        0.03727588422738
H           -1.62345885388676        1.13802052370191       -0.04955230191042
H            5.69201510318870        3.76071865421785        0.08964213670141
C            1.89386235620763        1.03664223644107        0.03198652651877
C            3.75657105940994        2.73936495084088        0.05033591646309
F            2.18823039370364       -1.33029287552672        0.06988996328285
C            3.25933904061721        1.45683382062552        0.06222162883148
H           -0.53926290380334       -1.26686786084185        0.00562768080418
